#======================================================================

# CRYSTAL DATA

#----------------------------------------------------------------------

data_VESTA_phase_1


_pd_phase_name                         'F-Pb-I                                '
_cell_length_a                         6.40746
_cell_length_b                         6.26562
_cell_length_c                         6.33757
_cell_angle_alpha                      90
_cell_angle_beta                       90
_cell_angle_gamma                      89.99999
_symmetry_space_group_name_H-M         'P 1'
_symmetry_Int_Tables_number            1

loop_
_symmetry_equiv_pos_as_xyz
   'x, y, z'

loop_
   _atom_site_label
   _atom_site_occupancy
   _atom_site_fract_x
   _atom_site_fract_y
   _atom_site_fract_z
   _atom_site_adp_type
   _atom_site_B_iso_or_equiv
   _atom_site_type_symbol
C1	1	0.500000	0.500000	0.500000	Biso	1	C
N1	1	0.681742	0.405150	0.500000	Biso	1	N
N2	1	0.318254	0.405150	0.500000	Biso	1	N
H1	1	0.499999	0.675168	0.500000	Biso	1	H
H2	1	0.811781	0.499896	0.500000	Biso	1	H
H3	1	0.701974	0.242810	0.500000	Biso	1	H
H4	1	0.298024	0.242810	0.500000	Biso	1	H
H5	1	0.188217	0.499896	0.500000	Biso	1	H
Pb1	1	0.999999	0.945347	1.000000	Biso	1	Pb
I1	1	0.499999	0.963837	1.000000	Biso	1	I
I2	1	-0.000001	0.442368	1.000000	Biso	1	I
I3	1	-0.000001	0.899123	0.500000	Biso	1	I

